 ****** HSPICE -- D-2010.03-SP1 32-BIT (May 26 2010) winnt ******               
  Copyright (C) 2010 Synopsys, Inc. All Rights Reserved.                        
  Unpublished-rights reserved under US copyright laws.
  This program is protected by law and is subject to the 
  terms and conditions of the license agreement from Synopsys.
  Use of this program is your acceptance to be bound by the 
  license agreement. HSPICE is the trademark of Synopsys, Inc.
  Input File: c:\users\administrator\desktop\tamrin for sending\tamrin 2\nmos\ba
  lic:  
  lic: FLEXlm: v8.5b 
  lic: USER:   Administrator        HOSTNAME: IK-PC 
  lic: HOSTID: 000000000000         PID:      2924 
  lic: Using FLEXlm license file: 
  lic: 27000@elena 
  lic: Checkout 1 hspice 
  lic: License/Maintenance for hspice will expire on 31-dec-2020/2007.9 
  lic: NODE LOCKED license on hostid 000000000000 
  lic:   
 Init: read install configuration file: C:\synopsys\Hspice_D-2010.03-SP1\meta.cfg
1****** HSPICE -- D-2010.03-SP1 32-BIT (May 26 2010) winnt ******               
 ******  
 ** --------------------------------------**

  ******  circuit name directory
 circuit number to circuit name directory
   number circuitname                     definition         multiplier
        0 main circuit
        1 xnot.                           not                1.00 
        2 xnot1.                          not                1.00 
        3 xnot2.                          not                1.00 
        4 xnot3.                          not                1.00 
1****** HSPICE -- D-2010.03-SP1 32-BIT (May 26 2010) winnt ******               
 ******  
 ** --------------------------------------**

  ******  mos   model parameters tnom=  25.000 temp=  25.000 *****
 
Model Name: nmos  

 BSIM4 Model (Level 54)

    MOBMOD = 0
    BINUNIT = 1
    PARAMCHK = 1
    CAPMOD = 2
    DIOMOD = 1
    RDSMOD = 0
    TRNQSMOD = 0
    ACNQSMOD = 0
    RBODYMOD = 1
    RGATEMOD = 1
    PERMOD = 1
    GEOMOD = 1
    RGEOMOD = 0
    FNOIMOD = 1
    TNOIMOD = 0
    IGCMOD = 1
    IGBMOD = 1
    STIMOD = 0
    VERSION =      4 
    TOXREF = 7.5e-010 
    TOXE = 7.5e-010 
    TOXP = 5e-010 
    TOXM = 7.5e-010 
    DTOX = 2.5e-010 
    EPSROX =    3.9 
    CDSC =      0 
    CDSCB =      0 
    CDSCD =      0 
    CIT =      0 
    NFACTOR =    2.1 
    XJ = 1e-008 
    VSAT = 1.821e+005 
    A0 =      1 
    AGS =      0 
    A1 =      0 
    A2 =      1 
    AT = 3.3e+004 
    KETA =   0.04 
    NSUB = 6e+016 
    NDEP = 8.7e+018 
    NSD = 2e+020 
    NGATE = 1e+023 
    GAMMA1 =      0 
    GAMMA2 =      0 
    VBX =      0 
    VBM =     -3 
    XT = 1.55e-007 
    K1 =    0.2 
    KT1 = -0.154 
    KT1L =      0 
    KT2 =  0.022 
    K2 =      0 
    K3 =      0 
    K3B =      0 
    LPE0 =      0 
    LPEB =      0 
    DVTP0 = 1e-011 
    DVTP1 =    0.1 
    W0 = 2.5e-006 
    DVT0 =      1 
    DVT1 =      2 
    DVT2 =      0 
    DVT0W =      0 
    DVT1W =      0 
    DVT2W =      0 
    DROUT =    0.5 
    DSUB =  0.078 
    VTH0 = 0.3558 
    EU =   1.67 
    UA = -5e-010 
    UA1 = 1e-009 
    UB = 1.7e-018 
    UB1 = -1e-018 
    UC =      0 
    UC1 = -5.6e-011 
    U0 = 0.0238 
    UTE =   -1.1 
    VOFF =  -0.13 
    VOFFL =      0 
    MINV =   0.05 
    FPROUT =    0.2 
    PDITS =   0.01 
    PDITSD =   0.23 
    PDITSL = 2.3e+006 
    DELTA =   0.01 
    RDSW =     80 
    RDSWMIN =      0 
    RDWMIN =      0 
    RSWMIN =      0 
    RDW =     40 
    RSW =     40 
    PRWG =      0 
    PRWB =      0 
    PRT =      0 
    ETA0 =  0.005 
    ETAB =      0 
    PCLM =   0.06 
    PDIBLC1 =  0.001 
    PDIBLC2 =  0.001 
    PDIBLCB = -0.005 
    PSCBE1 = 2e+009 
    PSCBE2 = 1e-007 
    PVAG = 1e-020 
    WR =      1 
    DWG =      0 
    DWB =      0 
    XW =      0 
    XWREF =      0 
    XL = -1.4e-008 
    XLREF = -1.4e-008 
    B0 =      0 
    B1 =      0 
    ALPHA0 =  0.074 
    ALPHA1 =  0.005 
    AGIDL = 0.0002 
    BGIDL = 2.1e+009 
    CGIDL = 0.0002 
    PHIN =      0 
    EGIDL =    0.8 
    AIGC = 0.02001 
    BIGC = 0.002743 
    CIGC =  0.002 
    AIGSD = 0.02001 
    BIGSD = 0.002743 
    CIGSD =  0.002 
    AIGBACC =  0.012 
    BIGBACC = 0.0028 
    CIGBACC =  0.002 
    AIGBINV =  0.014 
    BIGBINV =  0.004 
    CIGBINV =  0.004 
    NIGC =      1 
    NIGBINV =      3 
    NIGBACC =      1 
    NTOX =      1 
    EIGBINV =    1.1 
    PIGCD =      1 
    POXEDGE =      1 
    XRCRG1 =     12 
    TNOIA =    1.5 
    TNOIB =    3.5 
    NTNOI =      1 
    XRCRG2 =      5 
    BETA0 =     30 
    IJTHDFWD =    0.1 
    IJTHSFWD =    0.1 
    IJTHDREV =    0.1 
    IJTHSREV =    0.1 
    XJBVD =      1 
    XJBVS =      1 
    BVD =     10 
    BVS =     10 
    VFB = -1.058 
    GBMIN = 1e-010 
    RBDB =     15 
    RBPB =      5 
    RBSB =     15 
    RBPS =     15 
    RBPD =     15 
    CGSL = 7.5e-013 
    CGDL = 7.5e-013 
    CKAPPAS =    0.6 
    CKAPPAD =    0.6 
    CF = 1.1e-010 
    CLC = 1e-007 
    CLE =    0.6 
    DWC = 5e-009 
    DLC = 1.95e-009 
    DLCIG = 1.95e-009 
    DWJ =      0 
    VFBCV =     -1 
    ACDE =      1 
    MOIN =     15 
    NOFF =      1 
    VOFFCV =      0 
    DMCG =      0 
    DMCI =      0 
    DMDG =      0 
    DMCGT =      0 
    XGW =      0 
    XGL =      0 
    RSHG =    0.4 
    NGCON =      1 
    TCJ =      0 
    TPB =      0 
    TCJSW =      0 
    TPBSW =      0 
    TCJSWG =      0 
    TPBSWG =      0 
    SK0 =      0 
    SK1 =      0 
    SK2 =      0 
    SL = 2e-006 
    SW = 2e-006 
    K =      0 
    TNOM =  300.1 
    CGSO = 9e-011 
    CGDO = 9e-011 
    CGBO =      0 
    XPART =      0 
    RSH =      5 
    JSS = 1.2e-006 
    JSWS = 2.4e-013 
    JSWGS = 2.4e-013 
    PBS =      1 
    MJS =    0.5 
    PBSWS =      1 
    MJSWS =   0.33 
    CJS = 0.0018 
    CJSWS = 1.2e-010 
    NJS =      1 
    PBSWGS =      1 
    MJSWGS =   0.33 
    CJSWGS = 2.1e-010 
    XTIS =      3 
    JSD = 1.2e-006 
    JSWD = 2.4e-013 
    JSWGD = 2.4e-013 
    PBD =      1 
    MJD =    0.5 
    PBSWD =      1 
    MJSWD =   0.33 
    CJD = 0.0018 
    CJSWD = 1.2e-010 
    NJD =      1 
    PBSWGD =      1 
    MJSWGD =   0.33 
    CJSWGD = 2.1e-010 
    XTID =      3 
    LMLT =      1 
    WMLT =      1 
    LINT = 1.95e-009 
    LL =      0 
    LLC =      0 
    LLN =      1 
    LW =      0 
    LWC =      0 
    LWN =      1 
    LWL =      0 
    LWLC =      0 
    LMIN =      0 
    LMAX =      1 
    WINT = 5e-009 
    WL =      0 
    WLC =      0 
    WLN =      1 
    WW =      0 
    WWC =      0 
    WWN =      1 
    WWL =      0 
    WWLC =      0 
    WMIN =      0 
    WMAX =      1 
    NOIA = 6.25e+041 
    NOIB = 3.125e+026 
    NOIC = 8.75e+009 
    EM = 4.1e+007 
    EF =      1 
    AF =      1 
    KF =      0 
    TRS =      0 
    TRD =      0 
 

 Warning:  Acde = 1 may be too small in BSIM4 model nmos with w=1e-006 l=3.2e-008.

  **warning** (c:\users\administrator\desktop\tamrin for sending\tamrin 2\nmos\bareshba\buffer.sp:34) Unable to find referenced node inb; Output variable ignored. Specify a valid node.
 
      
 **info** set option symb=1 internally to help for convergence.
 *****************************************************************
 ******  option summary
 ******
 runlvl  = 3         bypass  = 2         
  Opening plot unit= 79
 file=c:\users\administrator\desktop\tamrin for sending\tamrin 2\nmos\bareshba\

1****** HSPICE -- D-2010.03-SP1 32-BIT (May 26 2010) winnt ******               
 ******  
 ** --------------------------------------**

  ******  operating point information tnom=  25.000 temp=  25.000 *****
 ***** operating point status is voltage   simulation time is     0.     
    node    =voltage      node    =voltage      node    =voltage

 +0:ina     =   0.      0:out     = 866.5256m 0:out1    = 337.0551m
 +0:out2    = 337.0551m 0:out3    = 337.0551m 0:vdd     =   1.1000 

 ******  
 ** --------------------------------------**

  ******  transient analysis tnom=  25.000 temp=  25.000 *****
   ivdd= -1.8576E-03  from=  1.0000E-11     to=  2.5000E-11
   avgpwrs=  2.0434E-03
   avgpwrt=  2.0439E-03  from=  1.0000E-11     to=  2.5000E-11
x

        time    voltage    
                    ina    
    0.            0.       
   10.00000p      1.1000   
   20.00000p      1.1000   
   30.00000p      1.1000   
   40.00000p      1.1000   
   50.00000p      1.1000   
   60.00000p      1.1000   
   70.00000p      1.1000   
   80.00000p      1.1000   
   90.00000p      1.1000   
  100.00000p      1.1000   
  110.00000p      1.1000   
  120.00000p      1.1000   
  130.00000p      1.1000   
  140.00000p      1.1000   
  150.00000p      1.1000   
  160.00000p      1.1000   
  170.00000p      1.1000   
  180.00000p      1.1000   
  190.00000p      1.1000   
  200.00000p      1.1000   
  210.00000p      1.1000   
  220.00000p      1.1000   
  230.00000p      1.1000   
  240.00000p      1.1000   
  250.00000p      1.1000   
  260.00000p      1.1000   
  270.00000p      1.1000   
  280.00000p      1.1000   
  290.00000p      1.1000   
  300.00000p      1.1000   
  310.00000p      1.1000   
  320.00000p      1.1000   
  330.00000p      1.1000   
  340.00000p      1.1000   
  350.00000p      1.1000   
  360.00000p      1.1000   
  370.00000p      1.1000   
  380.00000p      1.1000   
  390.00000p      1.1000   
  400.00000p      1.1000   
  410.00000p      1.1000   
  420.00000p      1.1000   
  430.00000p      1.1000   
  440.00000p      1.1000   
  450.00000p      1.1000   
  460.00000p      1.1000   
  470.00000p      1.1000   
  480.00000p      1.1000   
  490.00000p      1.1000   
  500.00000p      1.1000   
  510.00000p      1.1000   
  520.00000p      1.1000   
  530.00000p      1.1000   
  540.00000p      1.1000   
  550.00000p      1.1000   
  560.00000p      1.1000   
  570.00000p      1.1000   
  580.00000p      1.1000   
  590.00000p      1.1000   
  600.00000p      1.1000   
  610.00000p      1.1000   
  620.00000p      1.1000   
  630.00000p      1.1000   
  640.00000p      1.1000   
  650.00000p      1.1000   
  660.00000p      1.1000   
  670.00000p      1.1000   
  680.00000p      1.1000   
  690.00000p      1.1000   
  700.00000p      1.1000   
  710.00000p      1.1000   
  720.00000p      1.1000   
  730.00000p      1.1000   
  740.00000p      1.1000   
  750.00000p      1.1000   
  760.00000p      1.1000   
  770.00000p      1.1000   
  780.00000p      1.1000   
  790.00000p      1.1000   
  800.00000p      1.1000   
  810.00000p      1.1000   
  820.00000p      1.1000   
  830.00000p      1.1000   
  840.00000p      1.1000   
  850.00000p      1.1000   
  860.00000p      1.1000   
  870.00000p      1.1000   
  880.00000p      1.1000   
  890.00000p      1.1000   
  900.00000p      1.1000   
  910.00000p      1.1000   
  920.00000p      1.1000   
  930.00000p      1.1000   
  940.00000p      1.1000   
  950.00000p      1.1000   
  960.00000p      1.1000   
  970.00000p      1.1000   
  980.00000p      1.1000   
  990.00000p      1.1000   
    1.00000n      1.1000   
    1.01000n      1.1000   
    1.02000n      1.1000   
    1.03000n      1.1000   
    1.04000n      1.1000   
    1.05000n      1.1000   
    1.06000n      1.1000   
    1.07000n      1.1000   
    1.08000n      1.1000   
    1.09000n      1.1000   
    1.10000n      1.1000   
    1.11000n      1.1000   
    1.12000n      1.1000   
    1.13000n      1.1000   
    1.14000n      1.1000   
    1.15000n      1.1000   
    1.16000n      1.1000   
    1.17000n      1.1000   
    1.18000n      1.1000   
    1.19000n      1.1000   
    1.20000n      1.1000   
    1.21000n      1.1000   
    1.22000n      1.1000   
    1.23000n      1.1000   
    1.24000n      1.1000   
    1.25000n      1.1000   
    1.26000n      1.1000   
    1.27000n      1.1000   
    1.28000n      1.1000   
    1.29000n      1.1000   
    1.30000n      1.1000   
    1.31000n      1.1000   
    1.32000n      1.1000   
    1.33000n      1.1000   
    1.34000n      1.1000   
    1.35000n      1.1000   
    1.36000n      1.1000   
    1.37000n      1.1000   
    1.38000n      1.1000   
    1.39000n      1.1000   
    1.40000n      1.1000   
    1.41000n      1.1000   
    1.42000n      1.1000   
    1.43000n      1.1000   
    1.44000n      1.1000   
    1.45000n      1.1000   
    1.46000n      1.1000   
    1.47000n      1.1000   
    1.48000n      1.1000   
    1.49000n      1.1000   
    1.50000n      1.1000   
    1.51000n      1.1000   
    1.52000n      1.1000   
    1.53000n      1.1000   
    1.54000n      1.1000   
    1.55000n      1.1000   
    1.56000n      1.1000   
    1.57000n      1.1000   
    1.58000n      1.1000   
    1.59000n      1.1000   
    1.60000n      1.1000   
    1.61000n      1.1000   
    1.62000n      1.1000   
    1.63000n      1.1000   
    1.64000n      1.1000   
    1.65000n      1.1000   
    1.66000n      1.1000   
    1.67000n      1.1000   
    1.68000n      1.1000   
    1.69000n      1.1000   
    1.70000n      1.1000   
    1.71000n      1.1000   
    1.72000n      1.1000   
    1.73000n      1.1000   
    1.74000n      1.1000   
    1.75000n      1.1000   
    1.76000n      1.1000   
    1.77000n      1.1000   
    1.78000n      1.1000   
    1.79000n      1.1000   
    1.80000n      1.1000   
    1.81000n      1.1000   
    1.82000n      1.1000   
    1.83000n      1.1000   
    1.84000n      1.1000   
    1.85000n      1.1000   
    1.86000n      1.1000   
    1.87000n      1.1000   
    1.88000n      1.1000   
    1.89000n      1.1000   
    1.90000n      1.1000   
    1.91000n      1.1000   
    1.92000n      1.1000   
    1.93000n      1.1000   
    1.94000n      1.1000   
    1.95000n      1.1000   
    1.96000n      1.1000   
    1.97000n      1.1000   
    1.98000n      1.1000   
    1.99000n      1.1000   
    2.00000n      1.1000   
    2.01000n      1.1000   
    2.02000n      1.1000   
    2.03000n      1.1000   
    2.04000n      1.1000   
    2.05000n      1.1000   
    2.06000n      1.1000   
    2.07000n      1.1000   
    2.08000n      1.1000   
    2.09000n      1.1000   
    2.10000n      1.1000   
    2.11000n      1.1000   
    2.12000n      1.1000   
    2.13000n      1.1000   
    2.14000n      1.1000   
    2.15000n      1.1000   
    2.16000n      1.1000   
    2.17000n      1.1000   
    2.18000n      1.1000   
    2.19000n      1.1000   
    2.20000n      1.1000   
    2.21000n      1.1000   
    2.22000n      1.1000   
    2.23000n      1.1000   
    2.24000n      1.1000   
    2.25000n      1.1000   
    2.26000n      1.1000   
    2.27000n      1.1000   
    2.28000n      1.1000   
    2.29000n      1.1000   
    2.30000n      1.1000   
    2.31000n      1.1000   
    2.32000n      1.1000   
    2.33000n      1.1000   
    2.34000n      1.1000   
    2.35000n      1.1000   
    2.36000n      1.1000   
    2.37000n      1.1000   
    2.38000n      1.1000   
    2.39000n      1.1000   
    2.40000n      1.1000   
    2.41000n      1.1000   
    2.42000n      1.1000   
    2.43000n      1.1000   
    2.44000n      1.1000   
    2.45000n      1.1000   
    2.46000n      1.1000   
    2.47000n      1.1000   
    2.48000n      1.1000   
    2.49000n      1.1000   
    2.50000n      1.1000   
    2.51000n      1.1000   
    2.52000n      1.1000   
    2.53000n      1.1000   
    2.54000n      1.1000   
    2.55000n      1.1000   
    2.56000n      1.1000   
    2.57000n      1.1000   
    2.58000n      1.1000   
    2.59000n      1.1000   
    2.60000n      1.1000   
    2.61000n      1.1000   
    2.62000n      1.1000   
    2.63000n      1.1000   
    2.64000n      1.1000   
    2.65000n      1.1000   
    2.66000n      1.1000   
    2.67000n      1.1000   
    2.68000n      1.1000   
    2.69000n      1.1000   
    2.70000n      1.1000   
    2.71000n      1.1000   
    2.72000n      1.1000   
    2.73000n      1.1000   
    2.74000n      1.1000   
    2.75000n      1.1000   
    2.76000n      1.1000   
    2.77000n      1.1000   
    2.78000n      1.1000   
    2.79000n      1.1000   
    2.80000n      1.1000   
    2.81000n      1.1000   
    2.82000n      1.1000   
    2.83000n      1.1000   
    2.84000n      1.1000   
    2.85000n      1.1000   
    2.86000n      1.1000   
    2.87000n      1.1000   
    2.88000n      1.1000   
    2.89000n      1.1000   
    2.90000n      1.1000   
    2.91000n      1.1000   
    2.92000n      1.1000   
    2.93000n      1.1000   
    2.94000n      1.1000   
    2.95000n      1.1000   
    2.96000n      1.1000   
    2.97000n      1.1000   
    2.98000n      1.1000   
    2.99000n      1.1000   
    3.00000n      1.1000   
    3.01000n      1.1000   
    3.02000n      1.1000   
    3.03000n      1.1000   
    3.04000n      1.1000   
    3.05000n      1.1000   
    3.06000n      1.1000   
    3.07000n      1.1000   
    3.08000n      1.1000   
    3.09000n      1.1000   
    3.10000n      1.1000   
    3.11000n      1.1000   
    3.12000n      1.1000   
    3.13000n      1.1000   
    3.14000n      1.1000   
    3.15000n      1.1000   
    3.16000n      1.1000   
    3.17000n      1.1000   
    3.18000n      1.1000   
    3.19000n      1.1000   
    3.20000n      1.1000   
    3.21000n      1.1000   
    3.22000n      1.1000   
    3.23000n      1.1000   
    3.24000n      1.1000   
    3.25000n      1.1000   
    3.26000n      1.1000   
    3.27000n      1.1000   
    3.28000n      1.1000   
    3.29000n      1.1000   
    3.30000n      1.1000   
    3.31000n      1.1000   
    3.32000n      1.1000   
    3.33000n      1.1000   
    3.34000n      1.1000   
    3.35000n      1.1000   
    3.36000n      1.1000   
    3.37000n      1.1000   
    3.38000n      1.1000   
    3.39000n      1.1000   
    3.40000n      1.1000   
    3.41000n      1.1000   
    3.42000n      1.1000   
    3.43000n      1.1000   
    3.44000n      1.1000   
    3.45000n      1.1000   
    3.46000n      1.1000   
    3.47000n      1.1000   
    3.48000n      1.1000   
    3.49000n      1.1000   
    3.50000n      1.1000   
    3.51000n      1.1000   
    3.52000n      1.1000   
    3.53000n      1.1000   
    3.54000n      1.1000   
    3.55000n      1.1000   
    3.56000n      1.1000   
    3.57000n      1.1000   
    3.58000n      1.1000   
    3.59000n      1.1000   
    3.60000n      1.1000   
    3.61000n      1.1000   
    3.62000n      1.1000   
    3.63000n      1.1000   
    3.64000n      1.1000   
    3.65000n      1.1000   
    3.66000n      1.1000   
    3.67000n      1.1000   
    3.68000n      1.1000   
    3.69000n      1.1000   
    3.70000n      1.1000   
    3.71000n      1.1000   
    3.72000n      1.1000   
    3.73000n      1.1000   
    3.74000n      1.1000   
    3.75000n      1.1000   
    3.76000n      1.1000   
    3.77000n      1.1000   
    3.78000n      1.1000   
    3.79000n      1.1000   
    3.80000n      1.1000   
    3.81000n      1.1000   
    3.82000n      1.1000   
    3.83000n      1.1000   
    3.84000n      1.1000   
    3.85000n      1.1000   
    3.86000n      1.1000   
    3.87000n      1.1000   
    3.88000n      1.1000   
    3.89000n      1.1000   
    3.90000n      1.1000   
    3.91000n      1.1000   
    3.92000n      1.1000   
    3.93000n      1.1000   
    3.94000n      1.1000   
    3.95000n      1.1000   
    3.96000n      1.1000   
    3.97000n      1.1000   
    3.98000n      1.1000   
    3.99000n      1.1000   
    4.00000n      1.1000   
    4.01000n      1.1000   
    4.02000n      1.1000   
    4.03000n      1.1000   
    4.04000n      1.1000   
    4.05000n      1.1000   
    4.06000n      1.1000   
    4.07000n      1.1000   
    4.08000n      1.1000   
    4.09000n      1.1000   
    4.10000n      1.1000   
    4.11000n      1.1000   
    4.12000n      1.1000   
    4.13000n      1.1000   
    4.14000n      1.1000   
    4.15000n      1.1000   
    4.16000n      1.1000   
    4.17000n      1.1000   
    4.18000n      1.1000   
    4.19000n      1.1000   
    4.20000n      1.1000   
    4.21000n      1.1000   
    4.22000n      1.1000   
    4.23000n      1.1000   
    4.24000n      1.1000   
    4.25000n      1.1000   
    4.26000n      1.1000   
    4.27000n      1.1000   
    4.28000n      1.1000   
    4.29000n      1.1000   
    4.30000n      1.1000   
    4.31000n      1.1000   
    4.32000n      1.1000   
    4.33000n      1.1000   
    4.34000n      1.1000   
    4.35000n      1.1000   
    4.36000n      1.1000   
    4.37000n      1.1000   
    4.38000n      1.1000   
    4.39000n      1.1000   
    4.40000n      1.1000   
    4.41000n      1.1000   
    4.42000n      1.1000   
    4.43000n      1.1000   
    4.44000n      1.1000   
    4.45000n      1.1000   
    4.46000n      1.1000   
    4.47000n      1.1000   
    4.48000n      1.1000   
    4.49000n      1.1000   
    4.50000n      1.1000   
    4.51000n      1.1000   
    4.52000n      1.1000   
    4.53000n      1.1000   
    4.54000n      1.1000   
    4.55000n      1.1000   
    4.56000n      1.1000   
    4.57000n      1.1000   
    4.58000n      1.1000   
    4.59000n      1.1000   
    4.60000n      1.1000   
    4.61000n      1.1000   
    4.62000n      1.1000   
    4.63000n      1.1000   
    4.64000n      1.1000   
    4.65000n      1.1000   
    4.66000n      1.1000   
    4.67000n      1.1000   
    4.68000n      1.1000   
    4.69000n      1.1000   
    4.70000n      1.1000   
    4.71000n      1.1000   
    4.72000n      1.1000   
    4.73000n      1.1000   
    4.74000n      1.1000   
    4.75000n      1.1000   
    4.76000n      1.1000   
    4.77000n      1.1000   
    4.78000n      1.1000   
    4.79000n      1.1000   
    4.80000n      1.1000   
    4.81000n      1.1000   
    4.82000n      1.1000   
    4.83000n      1.1000   
    4.84000n      1.1000   
    4.85000n      1.1000   
    4.86000n      1.1000   
    4.87000n      1.1000   
    4.88000n      1.1000   
    4.89000n      1.1000   
    4.90000n      1.1000   
    4.91000n      1.1000   
    4.92000n      1.1000   
    4.93000n      1.1000   
    4.94000n      1.1000   
    4.95000n      1.1000   
    4.96000n      1.1000   
    4.97000n      1.1000   
    4.98000n      1.1000   
    4.99000n      1.1000   
    5.00000n      1.1000   
    5.01000n      1.1000   
    5.02000n      1.1000   
    5.03000n      1.1000   
    5.04000n      1.1000   
    5.05000n      1.1000   
    5.06000n      1.1000   
    5.07000n      1.1000   
    5.08000n      1.1000   
    5.09000n      1.1000   
    5.10000n      1.1000   
    5.11000n      1.1000   
    5.12000n      1.1000   
    5.13000n      1.1000   
    5.14000n      1.1000   
    5.15000n      1.1000   
    5.16000n      1.1000   
    5.17000n      1.1000   
    5.18000n      1.1000   
    5.19000n      1.1000   
    5.20000n      1.1000   
    5.21000n      1.1000   
    5.22000n      1.1000   
    5.23000n      1.1000   
    5.24000n      1.1000   
    5.25000n      1.1000   
    5.26000n      1.1000   
    5.27000n      1.1000   
    5.28000n      1.1000   
    5.29000n      1.1000   
    5.30000n      1.1000   
    5.31000n      1.1000   
    5.32000n      1.1000   
    5.33000n      1.1000   
    5.34000n      1.1000   
    5.35000n      1.1000   
    5.36000n      1.1000   
    5.37000n      1.1000   
    5.38000n      1.1000   
    5.39000n      1.1000   
    5.40000n      1.1000   
    5.41000n      1.1000   
    5.42000n      1.1000   
    5.43000n      1.1000   
    5.44000n      1.1000   
    5.45000n      1.1000   
    5.46000n      1.1000   
    5.47000n      1.1000   
    5.48000n      1.1000   
    5.49000n      1.1000   
    5.50000n      1.1000   
    5.51000n      1.1000   
    5.52000n      1.1000   
    5.53000n      1.1000   
    5.54000n      1.1000   
    5.55000n      1.1000   
    5.56000n      1.1000   
    5.57000n      1.1000   
    5.58000n      1.1000   
    5.59000n      1.1000   
    5.60000n      1.1000   
    5.61000n      1.1000   
    5.62000n      1.1000   
    5.63000n      1.1000   
    5.64000n      1.1000   
    5.65000n      1.1000   
    5.66000n      1.1000   
    5.67000n      1.1000   
    5.68000n      1.1000   
    5.69000n      1.1000   
    5.70000n      1.1000   
    5.71000n      1.1000   
    5.72000n      1.1000   
    5.73000n      1.1000   
    5.74000n      1.1000   
    5.75000n      1.1000   
    5.76000n      1.1000   
    5.77000n      1.1000   
    5.78000n      1.1000   
    5.79000n      1.1000   
    5.80000n      1.1000   
    5.81000n      1.1000   
    5.82000n      1.1000   
    5.83000n      1.1000   
    5.84000n      1.1000   
    5.85000n      1.1000   
    5.86000n      1.1000   
    5.87000n      1.1000   
    5.88000n      1.1000   
    5.89000n      1.1000   
    5.90000n      1.1000   
    5.91000n      1.1000   
    5.92000n      1.1000   
    5.93000n      1.1000   
    5.94000n      1.1000   
    5.95000n      1.1000   
    5.96000n      1.1000   
    5.97000n      1.1000   
    5.98000n      1.1000   
    5.99000n      1.1000   
    6.00000n      1.1000   
    6.01000n      1.1000   
    6.02000n      1.1000   
    6.03000n      1.1000   
    6.04000n      1.1000   
    6.05000n      1.1000   
    6.06000n      1.1000   
    6.07000n      1.1000   
    6.08000n      1.1000   
    6.09000n      1.1000   
    6.10000n      1.1000   
    6.11000n      1.1000   
    6.12000n      1.1000   
    6.13000n      1.1000   
    6.14000n      1.1000   
    6.15000n      1.1000   
    6.16000n      1.1000   
    6.17000n      1.1000   
    6.18000n      1.1000   
    6.19000n      1.1000   
    6.20000n      1.1000   
    6.21000n      1.1000   
    6.22000n      1.1000   
    6.23000n      1.1000   
    6.24000n      1.1000   
    6.25000n      1.1000   
    6.26000n      1.1000   
    6.27000n      1.1000   
    6.28000n      1.1000   
    6.29000n      1.1000   
    6.30000n      1.1000   
    6.31000n      1.1000   
    6.32000n      1.1000   
    6.33000n      1.1000   
    6.34000n      1.1000   
    6.35000n      1.1000   
    6.36000n      1.1000   
    6.37000n      1.1000   
    6.38000n      1.1000   
    6.39000n      1.1000   
    6.40000n      1.1000   
    6.41000n      1.1000   
    6.42000n      1.1000   
    6.43000n      1.1000   
    6.44000n      1.1000   
    6.45000n      1.1000   
    6.46000n      1.1000   
    6.47000n      1.1000   
    6.48000n      1.1000   
    6.49000n      1.1000   
    6.50000n      1.1000   
    6.51000n      1.1000   
    6.52000n      1.1000   
    6.53000n      1.1000   
    6.54000n      1.1000   
    6.55000n      1.1000   
    6.56000n      1.1000   
    6.57000n      1.1000   
    6.58000n      1.1000   
    6.59000n      1.1000   
    6.60000n      1.1000   
    6.61000n      1.1000   
    6.62000n      1.1000   
    6.63000n      1.1000   
    6.64000n      1.1000   
    6.65000n      1.1000   
    6.66000n      1.1000   
    6.67000n      1.1000   
    6.68000n      1.1000   
    6.69000n      1.1000   
    6.70000n      1.1000   
    6.71000n      1.1000   
    6.72000n      1.1000   
    6.73000n      1.1000   
    6.74000n      1.1000   
    6.75000n      1.1000   
    6.76000n      1.1000   
    6.77000n      1.1000   
    6.78000n      1.1000   
    6.79000n      1.1000   
    6.80000n      1.1000   
    6.81000n      1.1000   
    6.82000n      1.1000   
    6.83000n      1.1000   
    6.84000n      1.1000   
    6.85000n      1.1000   
    6.86000n      1.1000   
    6.87000n      1.1000   
    6.88000n      1.1000   
    6.89000n      1.1000   
    6.90000n      1.1000   
    6.91000n      1.1000   
    6.92000n      1.1000   
    6.93000n      1.1000   
    6.94000n      1.1000   
    6.95000n      1.1000   
    6.96000n      1.1000   
    6.97000n      1.1000   
    6.98000n      1.1000   
    6.99000n      1.1000   
    7.00000n      1.1000   
    7.01000n      1.1000   
    7.02000n      1.1000   
    7.03000n      1.1000   
    7.04000n      1.1000   
    7.05000n      1.1000   
    7.06000n      1.1000   
    7.07000n      1.1000   
    7.08000n      1.1000   
    7.09000n      1.1000   
    7.10000n      1.1000   
    7.11000n      1.1000   
    7.12000n      1.1000   
    7.13000n      1.1000   
    7.14000n      1.1000   
    7.15000n      1.1000   
    7.16000n      1.1000   
    7.17000n      1.1000   
    7.18000n      1.1000   
    7.19000n      1.1000   
    7.20000n      1.1000   
    7.21000n      1.1000   
    7.22000n      1.1000   
    7.23000n      1.1000   
    7.24000n      1.1000   
    7.25000n      1.1000   
    7.26000n      1.1000   
    7.27000n      1.1000   
    7.28000n      1.1000   
    7.29000n      1.1000   
    7.30000n      1.1000   
    7.31000n      1.1000   
    7.32000n      1.1000   
    7.33000n      1.1000   
    7.34000n      1.1000   
    7.35000n      1.1000   
    7.36000n      1.1000   
    7.37000n      1.1000   
    7.38000n      1.1000   
    7.39000n      1.1000   
    7.40000n      1.1000   
    7.41000n      1.1000   
    7.42000n      1.1000   
    7.43000n      1.1000   
    7.44000n      1.1000   
    7.45000n      1.1000   
    7.46000n      1.1000   
    7.47000n      1.1000   
    7.48000n      1.1000   
    7.49000n      1.1000   
    7.50000n      1.1000   
    7.51000n      1.1000   
    7.52000n      1.1000   
    7.53000n      1.1000   
    7.54000n      1.1000   
    7.55000n      1.1000   
    7.56000n      1.1000   
    7.57000n      1.1000   
    7.58000n      1.1000   
    7.59000n      1.1000   
    7.60000n      1.1000   
    7.61000n      1.1000   
    7.62000n      1.1000   
    7.63000n      1.1000   
    7.64000n      1.1000   
    7.65000n      1.1000   
    7.66000n      1.1000   
    7.67000n      1.1000   
    7.68000n      1.1000   
    7.69000n      1.1000   
    7.70000n      1.1000   
    7.71000n      1.1000   
    7.72000n      1.1000   
    7.73000n      1.1000   
    7.74000n      1.1000   
    7.75000n      1.1000   
    7.76000n      1.1000   
    7.77000n      1.1000   
    7.78000n      1.1000   
    7.79000n      1.1000   
    7.80000n      1.1000   
    7.81000n      1.1000   
    7.82000n      1.1000   
    7.83000n      1.1000   
    7.84000n      1.1000   
    7.85000n      1.1000   
    7.86000n      1.1000   
    7.87000n      1.1000   
    7.88000n      1.1000   
    7.89000n      1.1000   
    7.90000n      1.1000   
    7.91000n      1.1000   
    7.92000n      1.1000   
    7.93000n      1.1000   
    7.94000n      1.1000   
    7.95000n      1.1000   
    7.96000n      1.1000   
    7.97000n      1.1000   
    7.98000n      1.1000   
    7.99000n      1.1000   
    8.00000n      1.1000   
    8.01000n      1.1000   
    8.02000n      1.1000   
    8.03000n      1.1000   
    8.04000n      1.1000   
    8.05000n      1.1000   
    8.06000n      1.1000   
    8.07000n      1.1000   
    8.08000n      1.1000   
    8.09000n      1.1000   
    8.10000n      1.1000   
    8.11000n      1.1000   
    8.12000n      1.1000   
    8.13000n      1.1000   
    8.14000n      1.1000   
    8.15000n      1.1000   
    8.16000n      1.1000   
    8.17000n      1.1000   
    8.18000n      1.1000   
    8.19000n      1.1000   
    8.20000n      1.1000   
    8.21000n      1.1000   
    8.22000n      1.1000   
    8.23000n      1.1000   
    8.24000n      1.1000   
    8.25000n      1.1000   
    8.26000n      1.1000   
    8.27000n      1.1000   
    8.28000n      1.1000   
    8.29000n      1.1000   
    8.30000n      1.1000   
    8.31000n      1.1000   
    8.32000n      1.1000   
    8.33000n      1.1000   
    8.34000n      1.1000   
    8.35000n      1.1000   
    8.36000n      1.1000   
    8.37000n      1.1000   
    8.38000n      1.1000   
    8.39000n      1.1000   
    8.40000n      1.1000   
    8.41000n      1.1000   
    8.42000n      1.1000   
    8.43000n      1.1000   
    8.44000n      1.1000   
    8.45000n      1.1000   
    8.46000n      1.1000   
    8.47000n      1.1000   
    8.48000n      1.1000   
    8.49000n      1.1000   
    8.50000n      1.1000   
    8.51000n      1.1000   
    8.52000n      1.1000   
    8.53000n      1.1000   
    8.54000n      1.1000   
    8.55000n      1.1000   
    8.56000n      1.1000   
    8.57000n      1.1000   
    8.58000n      1.1000   
    8.59000n      1.1000   
    8.60000n      1.1000   
    8.61000n      1.1000   
    8.62000n      1.1000   
    8.63000n      1.1000   
    8.64000n      1.1000   
    8.65000n      1.1000   
    8.66000n      1.1000   
    8.67000n      1.1000   
    8.68000n      1.1000   
    8.69000n      1.1000   
    8.70000n      1.1000   
    8.71000n      1.1000   
    8.72000n      1.1000   
    8.73000n      1.1000   
    8.74000n      1.1000   
    8.75000n      1.1000   
    8.76000n      1.1000   
    8.77000n      1.1000   
    8.78000n      1.1000   
    8.79000n      1.1000   
    8.80000n      1.1000   
    8.81000n      1.1000   
    8.82000n      1.1000   
    8.83000n      1.1000   
    8.84000n      1.1000   
    8.85000n      1.1000   
    8.86000n      1.1000   
    8.87000n      1.1000   
    8.88000n      1.1000   
    8.89000n      1.1000   
    8.90000n      1.1000   
    8.91000n      1.1000   
    8.92000n      1.1000   
    8.93000n      1.1000   
    8.94000n      1.1000   
    8.95000n      1.1000   
    8.96000n      1.1000   
    8.97000n      1.1000   
    8.98000n      1.1000   
    8.99000n      1.1000   
    9.00000n      1.1000   
    9.01000n      1.1000   
    9.02000n      1.1000   
    9.03000n      1.1000   
    9.04000n      1.1000   
    9.05000n      1.1000   
    9.06000n      1.1000   
    9.07000n      1.1000   
    9.08000n      1.1000   
    9.09000n      1.1000   
    9.10000n      1.1000   
    9.11000n      1.1000   
    9.12000n      1.1000   
    9.13000n      1.1000   
    9.14000n      1.1000   
    9.15000n      1.1000   
    9.16000n      1.1000   
    9.17000n      1.1000   
    9.18000n      1.1000   
    9.19000n      1.1000   
    9.20000n      1.1000   
    9.21000n      1.1000   
    9.22000n      1.1000   
    9.23000n      1.1000   
    9.24000n      1.1000   
    9.25000n      1.1000   
    9.26000n      1.1000   
    9.27000n      1.1000   
    9.28000n      1.1000   
    9.29000n      1.1000   
    9.30000n      1.1000   
    9.31000n      1.1000   
    9.32000n      1.1000   
    9.33000n      1.1000   
    9.34000n      1.1000   
    9.35000n      1.1000   
    9.36000n      1.1000   
    9.37000n      1.1000   
    9.38000n      1.1000   
    9.39000n      1.1000   
    9.40000n      1.1000   
    9.41000n      1.1000   
    9.42000n      1.1000   
    9.43000n      1.1000   
    9.44000n      1.1000   
    9.45000n      1.1000   
    9.46000n      1.1000   
    9.47000n      1.1000   
    9.48000n      1.1000   
    9.49000n      1.1000   
    9.50000n      1.1000   
    9.51000n      1.1000   
    9.52000n      1.1000   
    9.53000n      1.1000   
    9.54000n      1.1000   
    9.55000n      1.1000   
    9.56000n      1.1000   
    9.57000n      1.1000   
    9.58000n      1.1000   
    9.59000n      1.1000   
    9.60000n      1.1000   
    9.61000n      1.1000   
    9.62000n      1.1000   
    9.63000n      1.1000   
    9.64000n      1.1000   
    9.65000n      1.1000   
    9.66000n      1.1000   
    9.67000n      1.1000   
    9.68000n      1.1000   
    9.69000n      1.1000   
    9.70000n      1.1000   
    9.71000n      1.1000   
    9.72000n      1.1000   
    9.73000n      1.1000   
    9.74000n      1.1000   
    9.75000n      1.1000   
    9.76000n      1.1000   
    9.77000n      1.1000   
    9.78000n      1.1000   
    9.79000n      1.1000   
    9.80000n      1.1000   
    9.81000n      1.1000   
    9.82000n      1.1000   
    9.83000n      1.1000   
    9.84000n      1.1000   
    9.85000n      1.1000   
    9.86000n      1.1000   
    9.87000n      1.1000   
    9.88000n      1.1000   
    9.89000n      1.1000   
    9.90000n      1.1000   
    9.91000n      1.1000   
    9.92000n      1.1000   
    9.93000n      1.1000   
    9.94000n      1.1000   
    9.95000n      1.1000   
    9.96000n      1.1000   
    9.97000n      1.1000   
    9.98000n      1.1000   
    9.99000n      1.1000   
   10.00000n      1.1000   
   10.01000n      0.       
   10.02000n      0.       
   10.03000n      0.       
   10.04000n      0.       
   10.05000n      0.       
   10.06000n      0.       
   10.07000n      0.       
   10.08000n      0.       
   10.09000n      0.       
   10.10000n      0.       
   10.11000n      0.       
   10.12000n      0.       
   10.13000n      0.       
   10.14000n      0.       
   10.15000n      0.       
   10.16000n      0.       
   10.17000n      0.       
   10.18000n      0.       
   10.19000n      0.       
   10.20000n      0.       
   10.21000n      0.       
   10.22000n      0.       
   10.23000n      0.       
   10.24000n      0.       
   10.25000n      0.       
   10.26000n      0.       
   10.27000n      0.       
   10.28000n      0.       
   10.29000n      0.       
   10.30000n      0.       
   10.31000n      0.       
   10.32000n      0.       
   10.33000n      0.       
   10.34000n      0.       
   10.35000n      0.       
   10.36000n      0.       
   10.37000n      0.       
   10.38000n      0.       
   10.39000n      0.       
   10.40000n      0.       
   10.41000n      0.       
   10.42000n      0.       
   10.43000n      0.       
   10.44000n      0.       
   10.45000n      0.       
   10.46000n      0.       
   10.47000n      0.       
   10.48000n      0.       
   10.49000n      0.       
   10.50000n      0.       
   10.51000n      0.       
   10.52000n      0.       
   10.53000n      0.       
   10.54000n      0.       
   10.55000n      0.       
   10.56000n      0.       
   10.57000n      0.       
   10.58000n      0.       
   10.59000n      0.       
   10.60000n      0.       
   10.61000n      0.       
   10.62000n      0.       
   10.63000n      0.       
   10.64000n      0.       
   10.65000n      0.       
   10.66000n      0.       
   10.67000n      0.       
   10.68000n      0.       
   10.69000n      0.       
   10.70000n      0.       
   10.71000n      0.       
   10.72000n      0.       
   10.73000n      0.       
   10.74000n      0.       
   10.75000n      0.       
   10.76000n      0.       
   10.77000n      0.       
   10.78000n      0.       
   10.79000n      0.       
   10.80000n      0.       
   10.81000n      0.       
   10.82000n      0.       
   10.83000n      0.       
   10.84000n      0.       
   10.85000n      0.       
   10.86000n      0.       
   10.87000n      0.       
   10.88000n      0.       
   10.89000n      0.       
   10.90000n      0.       
   10.91000n      0.       
   10.92000n      0.       
   10.93000n      0.       
   10.94000n      0.       
   10.95000n      0.       
   10.96000n      0.       
   10.97000n      0.       
   10.98000n      0.       
   10.99000n      0.       
   11.00000n      0.       
   11.01000n      0.       
   11.02000n      0.       
   11.03000n      0.       
   11.04000n      0.       
   11.05000n      0.       
   11.06000n      0.       
   11.07000n      0.       
   11.08000n      0.       
   11.09000n      0.       
   11.10000n      0.       
   11.11000n      0.       
   11.12000n      0.       
   11.13000n      0.       
   11.14000n      0.       
   11.15000n      0.       
   11.16000n      0.       
   11.17000n      0.       
   11.18000n      0.       
   11.19000n      0.       
   11.20000n      0.       
   11.21000n      0.       
   11.22000n      0.       
   11.23000n      0.       
   11.24000n      0.       
   11.25000n      0.       
   11.26000n      0.       
   11.27000n      0.       
   11.28000n      0.       
   11.29000n      0.       
   11.30000n      0.       
   11.31000n      0.       
   11.32000n      0.       
   11.33000n      0.       
   11.34000n      0.       
   11.35000n      0.       
   11.36000n      0.       
   11.37000n      0.       
   11.38000n      0.       
   11.39000n      0.       
   11.40000n      0.       
   11.41000n      0.       
   11.42000n      0.       
   11.43000n      0.       
   11.44000n      0.       
   11.45000n      0.       
   11.46000n      0.       
   11.47000n      0.       
   11.48000n      0.       
   11.49000n      0.       
   11.50000n      0.       
   11.51000n      0.       
   11.52000n      0.       
   11.53000n      0.       
   11.54000n      0.       
   11.55000n      0.       
   11.56000n      0.       
   11.57000n      0.       
   11.58000n      0.       
   11.59000n      0.       
   11.60000n      0.       
   11.61000n      0.       
   11.62000n      0.       
   11.63000n      0.       
   11.64000n      0.       
   11.65000n      0.       
   11.66000n      0.       
   11.67000n      0.       
   11.68000n      0.       
   11.69000n      0.       
   11.70000n      0.       
   11.71000n      0.       
   11.72000n      0.       
   11.73000n      0.       
   11.74000n      0.       
   11.75000n      0.       
   11.76000n      0.       
   11.77000n      0.       
   11.78000n      0.       
   11.79000n      0.       
   11.80000n      0.       
   11.81000n      0.       
   11.82000n      0.       
   11.83000n      0.       
   11.84000n      0.       
   11.85000n      0.       
   11.86000n      0.       
   11.87000n      0.       
   11.88000n      0.       
   11.89000n      0.       
   11.90000n      0.       
   11.91000n      0.       
   11.92000n      0.       
   11.93000n      0.       
   11.94000n      0.       
   11.95000n      0.       
   11.96000n      0.       
   11.97000n      0.       
   11.98000n      0.       
   11.99000n      0.       
   12.00000n      0.       
   12.01000n      0.       
   12.02000n      0.       
   12.03000n      0.       
   12.04000n      0.       
   12.05000n      0.       
   12.06000n      0.       
   12.07000n      0.       
   12.08000n      0.       
   12.09000n      0.       
   12.10000n      0.       
   12.11000n      0.       
   12.12000n      0.       
   12.13000n      0.       
   12.14000n      0.       
   12.15000n      0.       
   12.16000n      0.       
   12.17000n      0.       
   12.18000n      0.       
   12.19000n      0.       
   12.20000n      0.       
   12.21000n      0.       
   12.22000n      0.       
   12.23000n      0.       
   12.24000n      0.       
   12.25000n      0.       
   12.26000n      0.       
   12.27000n      0.       
   12.28000n      0.       
   12.29000n      0.       
   12.30000n      0.       
   12.31000n      0.       
   12.32000n      0.       
   12.33000n      0.       
   12.34000n      0.       
   12.35000n      0.       
   12.36000n      0.       
   12.37000n      0.       
   12.38000n      0.       
   12.39000n      0.       
   12.40000n      0.       
   12.41000n      0.       
   12.42000n      0.       
   12.43000n      0.       
   12.44000n      0.       
   12.45000n      0.       
   12.46000n      0.       
   12.47000n      0.       
   12.48000n      0.       
   12.49000n      0.       
   12.50000n      0.       
   12.51000n      0.       
   12.52000n      0.       
   12.53000n      0.       
   12.54000n      0.       
   12.55000n      0.       
   12.56000n      0.       
   12.57000n      0.       
   12.58000n      0.       
   12.59000n      0.       
   12.60000n      0.       
   12.61000n      0.       
   12.62000n      0.       
   12.63000n      0.       
   12.64000n      0.       
   12.65000n      0.       
   12.66000n      0.       
   12.67000n      0.       
   12.68000n      0.       
   12.69000n      0.       
   12.70000n      0.       
   12.71000n      0.       
   12.72000n      0.       
   12.73000n      0.       
   12.74000n      0.       
   12.75000n      0.       
   12.76000n      0.       
   12.77000n      0.       
   12.78000n      0.       
   12.79000n      0.       
   12.80000n      0.       
   12.81000n      0.       
   12.82000n      0.       
   12.83000n      0.       
   12.84000n      0.       
   12.85000n      0.       
   12.86000n      0.       
   12.87000n      0.       
   12.88000n      0.       
   12.89000n      0.       
   12.90000n      0.       
   12.91000n      0.       
   12.92000n      0.       
   12.93000n      0.       
   12.94000n      0.       
   12.95000n      0.       
   12.96000n      0.       
   12.97000n      0.       
   12.98000n      0.       
   12.99000n      0.       
   13.00000n      0.       
   13.01000n      0.       
   13.02000n      0.       
   13.03000n      0.       
   13.04000n      0.       
   13.05000n      0.       
   13.06000n      0.       
   13.07000n      0.       
   13.08000n      0.       
   13.09000n      0.       
   13.10000n      0.       
   13.11000n      0.       
   13.12000n      0.       
   13.13000n      0.       
   13.14000n      0.       
   13.15000n      0.       
   13.16000n      0.       
   13.17000n      0.       
   13.18000n      0.       
   13.19000n      0.       
   13.20000n      0.       
   13.21000n      0.       
   13.22000n      0.       
   13.23000n      0.       
   13.24000n      0.       
   13.25000n      0.       
   13.26000n      0.       
   13.27000n      0.       
   13.28000n      0.       
   13.29000n      0.       
   13.30000n      0.       
   13.31000n      0.       
   13.32000n      0.       
   13.33000n      0.       
   13.34000n      0.       
   13.35000n      0.       
   13.36000n      0.       
   13.37000n      0.       
   13.38000n      0.       
   13.39000n      0.       
   13.40000n      0.       
   13.41000n      0.       
   13.42000n      0.       
   13.43000n      0.       
   13.44000n      0.       
   13.45000n      0.       
   13.46000n      0.       
   13.47000n      0.       
   13.48000n      0.       
   13.49000n      0.       
   13.50000n      0.       
   13.51000n      0.       
   13.52000n      0.       
   13.53000n      0.       
   13.54000n      0.       
   13.55000n      0.       
   13.56000n      0.       
   13.57000n      0.       
   13.58000n      0.       
   13.59000n      0.       
   13.60000n      0.       
   13.61000n      0.       
   13.62000n      0.       
   13.63000n      0.       
   13.64000n      0.       
   13.65000n      0.       
   13.66000n      0.       
   13.67000n      0.       
   13.68000n      0.       
   13.69000n      0.       
   13.70000n      0.       
   13.71000n      0.       
   13.72000n      0.       
   13.73000n      0.       
   13.74000n      0.       
   13.75000n      0.       
   13.76000n      0.       
   13.77000n      0.       
   13.78000n      0.       
   13.79000n      0.       
   13.80000n      0.       
   13.81000n      0.       
   13.82000n      0.       
   13.83000n      0.       
   13.84000n      0.       
   13.85000n      0.       
   13.86000n      0.       
   13.87000n      0.       
   13.88000n      0.       
   13.89000n      0.       
   13.90000n      0.       
   13.91000n      0.       
   13.92000n      0.       
   13.93000n      0.       
   13.94000n      0.       
   13.95000n      0.       
   13.96000n      0.       
   13.97000n      0.       
   13.98000n      0.       
   13.99000n      0.       
   14.00000n      0.       
   14.01000n      0.       
   14.02000n      0.       
   14.03000n      0.       
   14.04000n      0.       
   14.05000n      0.       
   14.06000n      0.       
   14.07000n      0.       
   14.08000n      0.       
   14.09000n      0.       
   14.10000n      0.       
   14.11000n      0.       
   14.12000n      0.       
   14.13000n      0.       
   14.14000n      0.       
   14.15000n      0.       
   14.16000n      0.       
   14.17000n      0.       
   14.18000n      0.       
   14.19000n      0.       
   14.20000n      0.       
   14.21000n      0.       
   14.22000n      0.       
   14.23000n      0.       
   14.24000n      0.       
   14.25000n      0.       
   14.26000n      0.       
   14.27000n      0.       
   14.28000n      0.       
   14.29000n      0.       
   14.30000n      0.       
   14.31000n      0.       
   14.32000n      0.       
   14.33000n      0.       
   14.34000n      0.       
   14.35000n      0.       
   14.36000n      0.       
   14.37000n      0.       
   14.38000n      0.       
   14.39000n      0.       
   14.40000n      0.       
   14.41000n      0.       
   14.42000n      0.       
   14.43000n      0.       
   14.44000n      0.       
   14.45000n      0.       
   14.46000n      0.       
   14.47000n      0.       
   14.48000n      0.       
   14.49000n      0.       
   14.50000n      0.       
   14.51000n      0.       
   14.52000n      0.       
   14.53000n      0.       
   14.54000n      0.       
   14.55000n      0.       
   14.56000n      0.       
   14.57000n      0.       
   14.58000n      0.       
   14.59000n      0.       
   14.60000n      0.       
   14.61000n      0.       
   14.62000n      0.       
   14.63000n      0.       
   14.64000n      0.       
   14.65000n      0.       
   14.66000n      0.       
   14.67000n      0.       
   14.68000n      0.       
   14.69000n      0.       
   14.70000n      0.       
   14.71000n      0.       
   14.72000n      0.       
   14.73000n      0.       
   14.74000n      0.       
   14.75000n      0.       
   14.76000n      0.       
   14.77000n      0.       
   14.78000n      0.       
   14.79000n      0.       
   14.80000n      0.       
   14.81000n      0.       
   14.82000n      0.       
   14.83000n      0.       
   14.84000n      0.       
   14.85000n      0.       
   14.86000n      0.       
   14.87000n      0.       
   14.88000n      0.       
   14.89000n      0.       
   14.90000n      0.       
   14.91000n      0.       
   14.92000n      0.       
   14.93000n      0.       
   14.94000n      0.       
   14.95000n      0.       
   14.96000n      0.       
   14.97000n      0.       
   14.98000n      0.       
   14.99000n      0.       
   15.00000n      0.       
   15.01000n      0.       
   15.02000n      0.       
   15.03000n      0.       
   15.04000n      0.       
   15.05000n      0.       
   15.06000n      0.       
   15.07000n      0.       
   15.08000n      0.       
   15.09000n      0.       
   15.10000n      0.       
   15.11000n      0.       
   15.12000n      0.       
   15.13000n      0.       
   15.14000n      0.       
   15.15000n      0.       
   15.16000n      0.       
   15.17000n      0.       
   15.18000n      0.       
   15.19000n      0.       
   15.20000n      0.       
   15.21000n      0.       
   15.22000n      0.       
   15.23000n      0.       
   15.24000n      0.       
   15.25000n      0.       
   15.26000n      0.       
   15.27000n      0.       
   15.28000n      0.       
   15.29000n      0.       
   15.30000n      0.       
   15.31000n      0.       
   15.32000n      0.       
   15.33000n      0.       
   15.34000n      0.       
   15.35000n      0.       
   15.36000n      0.       
   15.37000n      0.       
   15.38000n      0.       
   15.39000n      0.       
   15.40000n      0.       
   15.41000n      0.       
   15.42000n      0.       
   15.43000n      0.       
   15.44000n      0.       
   15.45000n      0.       
   15.46000n      0.       
   15.47000n      0.       
   15.48000n      0.       
   15.49000n      0.       
   15.50000n      0.       
   15.51000n      0.       
   15.52000n      0.       
   15.53000n      0.       
   15.54000n      0.       
   15.55000n      0.       
   15.56000n      0.       
   15.57000n      0.       
   15.58000n      0.       
   15.59000n      0.       
   15.60000n      0.       
   15.61000n      0.       
   15.62000n      0.       
   15.63000n      0.       
   15.64000n      0.       
   15.65000n      0.       
   15.66000n      0.       
   15.67000n      0.       
   15.68000n      0.       
   15.69000n      0.       
   15.70000n      0.       
   15.71000n      0.       
   15.72000n      0.       
   15.73000n      0.       
   15.74000n      0.       
   15.75000n      0.       
   15.76000n      0.       
   15.77000n      0.       
   15.78000n      0.       
   15.79000n      0.       
   15.80000n      0.       
   15.81000n      0.       
   15.82000n      0.       
   15.83000n      0.       
   15.84000n      0.       
   15.85000n      0.       
   15.86000n      0.       
   15.87000n      0.       
   15.88000n      0.       
   15.89000n      0.       
   15.90000n      0.       
   15.91000n      0.       
   15.92000n      0.       
   15.93000n      0.       
   15.94000n      0.       
   15.95000n      0.       
   15.96000n      0.       
   15.97000n      0.       
   15.98000n      0.       
   15.99000n      0.       
   16.00000n      0.       
   16.01000n      0.       
   16.02000n      0.       
   16.03000n      0.       
   16.04000n      0.       
   16.05000n      0.       
   16.06000n      0.       
   16.07000n      0.       
   16.08000n      0.       
   16.09000n      0.       
   16.10000n      0.       
   16.11000n      0.       
   16.12000n      0.       
   16.13000n      0.       
   16.14000n      0.       
   16.15000n      0.       
   16.16000n      0.       
   16.17000n      0.       
   16.18000n      0.       
   16.19000n      0.       
   16.20000n      0.       
   16.21000n      0.       
   16.22000n      0.       
   16.23000n      0.       
   16.24000n      0.       
   16.25000n      0.       
   16.26000n      0.       
   16.27000n      0.       
   16.28000n      0.       
   16.29000n      0.       
   16.30000n      0.       
   16.31000n      0.       
   16.32000n      0.       
   16.33000n      0.       
   16.34000n      0.       
   16.35000n      0.       
   16.36000n      0.       
   16.37000n      0.       
   16.38000n      0.       
   16.39000n      0.       
   16.40000n      0.       
   16.41000n      0.       
   16.42000n      0.       
   16.43000n      0.       
   16.44000n      0.       
   16.45000n      0.       
   16.46000n      0.       
   16.47000n      0.       
   16.48000n      0.       
   16.49000n      0.       
   16.50000n      0.       
   16.51000n      0.       
   16.52000n      0.       
   16.53000n      0.       
   16.54000n      0.       
   16.55000n      0.       
   16.56000n      0.       
   16.57000n      0.       
   16.58000n      0.       
   16.59000n      0.       
   16.60000n      0.       
   16.61000n      0.       
   16.62000n      0.       
   16.63000n      0.       
   16.64000n      0.       
   16.65000n      0.       
   16.66000n      0.       
   16.67000n      0.       
   16.68000n      0.       
   16.69000n      0.       
   16.70000n      0.       
   16.71000n      0.       
   16.72000n      0.       
   16.73000n      0.       
   16.74000n      0.       
   16.75000n      0.       
   16.76000n      0.       
   16.77000n      0.       
   16.78000n      0.       
   16.79000n      0.       
   16.80000n      0.       
   16.81000n      0.       
   16.82000n      0.       
   16.83000n      0.       
   16.84000n      0.       
   16.85000n      0.       
   16.86000n      0.       
   16.87000n      0.       
   16.88000n      0.       
   16.89000n      0.       
   16.90000n      0.       
   16.91000n      0.       
   16.92000n      0.       
   16.93000n      0.       
   16.94000n      0.       
   16.95000n      0.       
   16.96000n      0.       
   16.97000n      0.       
   16.98000n      0.       
   16.99000n      0.       
   17.00000n      0.       
   17.01000n      0.       
   17.02000n      0.       
   17.03000n      0.       
   17.04000n      0.       
   17.05000n      0.       
   17.06000n      0.       
   17.07000n      0.       
   17.08000n      0.       
   17.09000n      0.       
   17.10000n      0.       
   17.11000n      0.       
   17.12000n      0.       
   17.13000n      0.       
   17.14000n      0.       
   17.15000n      0.       
   17.16000n      0.       
   17.17000n      0.       
   17.18000n      0.       
   17.19000n      0.       
   17.20000n      0.       
   17.21000n      0.       
   17.22000n      0.       
   17.23000n      0.       
   17.24000n      0.       
   17.25000n      0.       
   17.26000n      0.       
   17.27000n      0.       
   17.28000n      0.       
   17.29000n      0.       
   17.30000n      0.       
   17.31000n      0.       
   17.32000n      0.       
   17.33000n      0.       
   17.34000n      0.       
   17.35000n      0.       
   17.36000n      0.       
   17.37000n      0.       
   17.38000n      0.       
   17.39000n      0.       
   17.40000n      0.       
   17.41000n      0.       
   17.42000n      0.       
   17.43000n      0.       
   17.44000n      0.       
   17.45000n      0.       
   17.46000n      0.       
   17.47000n      0.       
   17.48000n      0.       
   17.49000n      0.       
   17.50000n      0.       
   17.51000n      0.       
   17.52000n      0.       
   17.53000n      0.       
   17.54000n      0.       
   17.55000n      0.       
   17.56000n      0.       
   17.57000n      0.       
   17.58000n      0.       
   17.59000n      0.       
   17.60000n      0.       
   17.61000n      0.       
   17.62000n      0.       
   17.63000n      0.       
   17.64000n      0.       
   17.65000n      0.       
   17.66000n      0.       
   17.67000n      0.       
   17.68000n      0.       
   17.69000n      0.       
   17.70000n      0.       
   17.71000n      0.       
   17.72000n      0.       
   17.73000n      0.       
   17.74000n      0.       
   17.75000n      0.       
   17.76000n      0.       
   17.77000n      0.       
   17.78000n      0.       
   17.79000n      0.       
   17.80000n      0.       
   17.81000n      0.       
   17.82000n      0.       
   17.83000n      0.       
   17.84000n      0.       
   17.85000n      0.       
   17.86000n      0.       
   17.87000n      0.       
   17.88000n      0.       
   17.89000n      0.       
   17.90000n      0.       
   17.91000n      0.       
   17.92000n      0.       
   17.93000n      0.       
   17.94000n      0.       
   17.95000n      0.       
   17.96000n      0.       
   17.97000n      0.       
   17.98000n      0.       
   17.99000n      0.       
   18.00000n      0.       
   18.01000n      0.       
   18.02000n      0.       
   18.03000n      0.       
   18.04000n      0.       
   18.05000n      0.       
   18.06000n      0.       
   18.07000n      0.       
   18.08000n      0.       
   18.09000n      0.       
   18.10000n      0.       
   18.11000n      0.       
   18.12000n      0.       
   18.13000n      0.       
   18.14000n      0.       
   18.15000n      0.       
   18.16000n      0.       
   18.17000n      0.       
   18.18000n      0.       
   18.19000n      0.       
   18.20000n      0.       
   18.21000n      0.       
   18.22000n      0.       
   18.23000n      0.       
   18.24000n      0.       
   18.25000n      0.       
   18.26000n      0.       
   18.27000n      0.       
   18.28000n      0.       
   18.29000n      0.       
   18.30000n      0.       
   18.31000n      0.       
   18.32000n      0.       
   18.33000n      0.       
   18.34000n      0.       
   18.35000n      0.       
   18.36000n      0.       
   18.37000n      0.       
   18.38000n      0.       
   18.39000n      0.       
   18.40000n      0.       
   18.41000n      0.       
   18.42000n      0.       
   18.43000n      0.       
   18.44000n      0.       
   18.45000n      0.       
   18.46000n      0.       
   18.47000n      0.       
   18.48000n      0.       
   18.49000n      0.       
   18.50000n      0.       
   18.51000n      0.       
   18.52000n      0.       
   18.53000n      0.       
   18.54000n      0.       
   18.55000n      0.       
   18.56000n      0.       
   18.57000n      0.       
   18.58000n      0.       
   18.59000n      0.       
   18.60000n      0.       
   18.61000n      0.       
   18.62000n      0.       
   18.63000n      0.       
   18.64000n      0.       
   18.65000n      0.       
   18.66000n      0.       
   18.67000n      0.       
   18.68000n      0.       
   18.69000n      0.       
   18.70000n      0.       
   18.71000n      0.       
   18.72000n      0.       
   18.73000n      0.       
   18.74000n      0.       
   18.75000n      0.       
   18.76000n      0.       
   18.77000n      0.       
   18.78000n      0.       
   18.79000n      0.       
   18.80000n      0.       
   18.81000n      0.       
   18.82000n      0.       
   18.83000n      0.       
   18.84000n      0.       
   18.85000n      0.       
   18.86000n      0.       
   18.87000n      0.       
   18.88000n      0.       
   18.89000n      0.       
   18.90000n      0.       
   18.91000n      0.       
   18.92000n      0.       
   18.93000n      0.       
   18.94000n      0.       
   18.95000n      0.       
   18.96000n      0.       
   18.97000n      0.       
   18.98000n      0.       
   18.99000n      0.       
   19.00000n      0.       
   19.01000n      0.       
   19.02000n      0.       
   19.03000n      0.       
   19.04000n      0.       
   19.05000n      0.       
   19.06000n      0.       
   19.07000n      0.       
   19.08000n      0.       
   19.09000n      0.       
   19.10000n      0.       
   19.11000n      0.       
   19.12000n      0.       
   19.13000n      0.       
   19.14000n      0.       
   19.15000n      0.       
   19.16000n      0.       
   19.17000n      0.       
   19.18000n      0.       
   19.19000n      0.       
   19.20000n      0.       
   19.21000n      0.       
   19.22000n      0.       
   19.23000n      0.       
   19.24000n      0.       
   19.25000n      0.       
   19.26000n      0.       
   19.27000n      0.       
   19.28000n      0.       
   19.29000n      0.       
   19.30000n      0.       
   19.31000n      0.       
   19.32000n      0.       
   19.33000n      0.       
   19.34000n      0.       
   19.35000n      0.       
   19.36000n      0.       
   19.37000n      0.       
   19.38000n      0.       
   19.39000n      0.       
   19.40000n      0.       
   19.41000n      0.       
   19.42000n      0.       
   19.43000n      0.       
   19.44000n      0.       
   19.45000n      0.       
   19.46000n      0.       
   19.47000n      0.       
   19.48000n      0.       
   19.49000n      0.       
   19.50000n      0.       
   19.51000n      0.       
   19.52000n      0.       
   19.53000n      0.       
   19.54000n      0.       
   19.55000n      0.       
   19.56000n      0.       
   19.57000n      0.       
   19.58000n      0.       
   19.59000n      0.       
   19.60000n      0.       
   19.61000n      0.       
   19.62000n      0.       
   19.63000n      0.       
   19.64000n      0.       
   19.65000n      0.       
   19.66000n      0.       
   19.67000n      0.       
   19.68000n      0.       
   19.69000n      0.       
   19.70000n      0.       
   19.71000n      0.       
   19.72000n      0.       
   19.73000n      0.       
   19.74000n      0.       
   19.75000n      0.       
   19.76000n      0.       
   19.77000n      0.       
   19.78000n      0.       
   19.79000n      0.       
   19.80000n      0.       
   19.81000n      0.       
   19.82000n      0.       
   19.83000n      0.       
   19.84000n      0.       
   19.85000n      0.       
   19.86000n      0.       
   19.87000n      0.       
   19.88000n      0.       
   19.89000n      0.       
   19.90000n      0.       
   19.91000n      0.       
   19.92000n      0.       
   19.93000n      0.       
   19.94000n      0.       
   19.95000n      0.       
   19.96000n      0.       
   19.97000n      0.       
   19.98000n      0.       
   19.99000n      0.       
   20.00000n      0.       
   20.01000n      0.       
   20.02000n      0.       
   20.03000n      0.       
   20.04000n      0.       
   20.05000n      0.       
   20.06000n      0.       
   20.07000n      0.       
   20.08000n      0.       
   20.09000n      0.       
   20.10000n      0.       
   20.11000n      0.       
   20.12000n      0.       
   20.13000n      0.       
   20.14000n      0.       
   20.15000n      0.       
   20.16000n      0.       
   20.17000n      0.       
   20.18000n      0.       
   20.19000n      0.       
   20.20000n      0.       
   20.21000n      0.       
   20.22000n      0.       
   20.23000n      0.       
   20.24000n      0.       
   20.25000n      0.       
   20.26000n      0.       
   20.27000n      0.       
   20.28000n      0.       
   20.29000n      0.       
   20.30000n      0.       
   20.31000n      0.       
   20.32000n      0.       
   20.33000n      0.       
   20.34000n      0.       
   20.35000n      0.       
   20.36000n      0.       
   20.37000n      0.       
   20.38000n      0.       
   20.39000n      0.       
   20.40000n      0.       
   20.41000n      0.       
   20.42000n      0.       
   20.43000n      0.       
   20.44000n      0.       
   20.45000n      0.       
   20.46000n      0.       
   20.47000n      0.       
   20.48000n      0.       
   20.49000n      0.       
   20.50000n      0.       
   20.51000n      0.       
   20.52000n      0.       
   20.53000n      0.       
   20.54000n      0.       
   20.55000n      0.       
   20.56000n      0.       
   20.57000n      0.       
   20.58000n      0.       
   20.59000n      0.       
   20.60000n      0.       
   20.61000n      0.       
   20.62000n      0.       
   20.63000n      0.       
   20.64000n      0.       
   20.65000n      0.       
   20.66000n      0.       
   20.67000n      0.       
   20.68000n      0.       
   20.69000n      0.       
   20.70000n      0.       
   20.71000n      0.       
   20.72000n      0.       
   20.73000n      0.       
   20.74000n      0.       
   20.75000n      0.       
   20.76000n      0.       
   20.77000n      0.       
   20.78000n      0.       
   20.79000n      0.       
   20.80000n      0.       
   20.81000n      0.       
   20.82000n      0.       
   20.83000n      0.       
   20.84000n      0.       
   20.85000n      0.       
   20.86000n      0.       
   20.87000n      0.       
   20.88000n      0.       
   20.89000n      0.       
   20.90000n      0.       
   20.91000n      0.       
   20.92000n      0.       
   20.93000n      0.       
   20.94000n      0.       
   20.95000n      0.       
   20.96000n      0.       
   20.97000n      0.       
   20.98000n      0.       
   20.99000n      0.       
   21.00000n      0.       
   21.01000n      0.       
   21.02000n      0.       
   21.03000n      0.       
   21.04000n      0.       
   21.05000n      0.       
   21.06000n      0.       
   21.07000n      0.       
   21.08000n      0.       
   21.09000n      0.       
   21.10000n      0.       
   21.11000n      0.       
   21.12000n      0.       
   21.13000n      0.       
   21.14000n      0.       
   21.15000n      0.       
   21.16000n      0.       
   21.17000n      0.       
   21.18000n      0.       
   21.19000n      0.       
   21.20000n      0.       
   21.21000n      0.       
   21.22000n      0.       
   21.23000n      0.       
   21.24000n      0.       
   21.25000n      0.       
   21.26000n      0.       
   21.27000n      0.       
   21.28000n      0.       
   21.29000n      0.       
   21.30000n      0.       
   21.31000n      0.       
   21.32000n      0.       
   21.33000n      0.       
   21.34000n      0.       
   21.35000n      0.       
   21.36000n      0.       
   21.37000n      0.       
   21.38000n      0.       
   21.39000n      0.       
   21.40000n      0.       
   21.41000n      0.       
   21.42000n      0.       
   21.43000n      0.       
   21.44000n      0.       
   21.45000n      0.       
   21.46000n      0.       
   21.47000n      0.       
   21.48000n      0.       
   21.49000n      0.       
   21.50000n      0.       
   21.51000n      0.       
   21.52000n      0.       
   21.53000n      0.       
   21.54000n      0.       
   21.55000n      0.       
   21.56000n      0.       
   21.57000n      0.       
   21.58000n      0.       
   21.59000n      0.       
   21.60000n      0.       
   21.61000n      0.       
   21.62000n      0.       
   21.63000n      0.       
   21.64000n      0.       
   21.65000n      0.       
   21.66000n      0.       
   21.67000n      0.       
   21.68000n      0.       
   21.69000n      0.       
   21.70000n      0.       
   21.71000n      0.       
   21.72000n      0.       
   21.73000n      0.       
   21.74000n      0.       
   21.75000n      0.       
   21.76000n      0.       
   21.77000n      0.       
   21.78000n      0.       
   21.79000n      0.       
   21.80000n      0.       
   21.81000n      0.       
   21.82000n      0.       
   21.83000n      0.       
   21.84000n      0.       
   21.85000n      0.       
   21.86000n      0.       
   21.87000n      0.       
   21.88000n      0.       
   21.89000n      0.       
   21.90000n      0.       
   21.91000n      0.       
   21.92000n      0.       
   21.93000n      0.       
   21.94000n      0.       
   21.95000n      0.       
   21.96000n      0.       
   21.97000n      0.       
   21.98000n      0.       
   21.99000n      0.       
   22.00000n      0.       
   22.01000n      0.       
   22.02000n      0.       
   22.03000n      0.       
   22.04000n      0.       
   22.05000n      0.       
   22.06000n      0.       
   22.07000n      0.       
   22.08000n      0.       
   22.09000n      0.       
   22.10000n      0.       
   22.11000n      0.       
   22.12000n      0.       
   22.13000n      0.       
   22.14000n      0.       
   22.15000n      0.       
   22.16000n      0.       
   22.17000n      0.       
   22.18000n      0.       
   22.19000n      0.       
   22.20000n      0.       
   22.21000n      0.       
   22.22000n      0.       
   22.23000n      0.       
   22.24000n      0.       
   22.25000n      0.       
   22.26000n      0.       
   22.27000n      0.       
   22.28000n      0.       
   22.29000n      0.       
   22.30000n      0.       
   22.31000n      0.       
   22.32000n      0.       
   22.33000n      0.       
   22.34000n      0.       
   22.35000n      0.       
   22.36000n      0.       
   22.37000n      0.       
   22.38000n      0.       
   22.39000n      0.       
   22.40000n      0.       
   22.41000n      0.       
   22.42000n      0.       
   22.43000n      0.       
   22.44000n      0.       
   22.45000n      0.       
   22.46000n      0.       
   22.47000n      0.       
   22.48000n      0.       
   22.49000n      0.       
   22.50000n      0.       
   22.51000n      0.       
   22.52000n      0.       
   22.53000n      0.       
   22.54000n      0.       
   22.55000n      0.       
   22.56000n      0.       
   22.57000n      0.       
   22.58000n      0.       
   22.59000n      0.       
   22.60000n      0.       
   22.61000n      0.       
   22.62000n      0.       
   22.63000n      0.       
   22.64000n      0.       
   22.65000n      0.       
   22.66000n      0.       
   22.67000n      0.       
   22.68000n      0.       
   22.69000n      0.       
   22.70000n      0.       
   22.71000n      0.       
   22.72000n      0.       
   22.73000n      0.       
   22.74000n      0.       
   22.75000n      0.       
   22.76000n      0.       
   22.77000n      0.       
   22.78000n      0.       
   22.79000n      0.       
   22.80000n      0.       
   22.81000n      0.       
   22.82000n      0.       
   22.83000n      0.       
   22.84000n      0.       
   22.85000n      0.       
   22.86000n      0.       
   22.87000n      0.       
   22.88000n      0.       
   22.89000n      0.       
   22.90000n      0.       
   22.91000n      0.       
   22.92000n      0.       
   22.93000n      0.       
   22.94000n      0.       
   22.95000n      0.       
   22.96000n      0.       
   22.97000n      0.       
   22.98000n      0.       
   22.99000n      0.       
   23.00000n      0.       
   23.01000n      0.       
   23.02000n      0.       
   23.03000n      0.       
   23.04000n      0.       
   23.05000n      0.       
   23.06000n      0.       
   23.07000n      0.       
   23.08000n      0.       
   23.09000n      0.       
   23.10000n      0.       
   23.11000n      0.       
   23.12000n      0.       
   23.13000n      0.       
   23.14000n      0.       
   23.15000n      0.       
   23.16000n      0.       
   23.17000n      0.       
   23.18000n      0.       
   23.19000n      0.       
   23.20000n      0.       
   23.21000n      0.       
   23.22000n      0.       
   23.23000n      0.       
   23.24000n      0.       
   23.25000n      0.       
   23.26000n      0.       
   23.27000n      0.       
   23.28000n      0.       
   23.29000n      0.       
   23.30000n      0.       
   23.31000n      0.       
   23.32000n      0.       
   23.33000n      0.       
   23.34000n      0.       
   23.35000n      0.       
   23.36000n      0.       
   23.37000n      0.       
   23.38000n      0.       
   23.39000n      0.       
   23.40000n      0.       
   23.41000n      0.       
   23.42000n      0.       
   23.43000n      0.       
   23.44000n      0.       
   23.45000n      0.       
   23.46000n      0.       
   23.47000n      0.       
   23.48000n      0.       
   23.49000n      0.       
   23.50000n      0.       
   23.51000n      0.       
   23.52000n      0.       
   23.53000n      0.       
   23.54000n      0.       
   23.55000n      0.       
   23.56000n      0.       
   23.57000n      0.       
   23.58000n      0.       
   23.59000n      0.       
   23.60000n      0.       
   23.61000n      0.       
   23.62000n      0.       
   23.63000n      0.       
   23.64000n      0.       
   23.65000n      0.       
   23.66000n      0.       
   23.67000n      0.       
   23.68000n      0.       
   23.69000n      0.       
   23.70000n      0.       
   23.71000n      0.       
   23.72000n      0.       
   23.73000n      0.       
   23.74000n      0.       
   23.75000n      0.       
   23.76000n      0.       
   23.77000n      0.       
   23.78000n      0.       
   23.79000n      0.       
   23.80000n      0.       
   23.81000n      0.       
   23.82000n      0.       
   23.83000n      0.       
   23.84000n      0.       
   23.85000n      0.       
   23.86000n      0.       
   23.87000n      0.       
   23.88000n      0.       
   23.89000n      0.       
   23.90000n      0.       
   23.91000n      0.       
   23.92000n      0.       
   23.93000n      0.       
   23.94000n      0.       
   23.95000n      0.       
   23.96000n      0.       
   23.97000n      0.       
   23.98000n      0.       
   23.99000n      0.       
   24.00000n      0.       
   24.01000n      0.       
   24.02000n      0.       
   24.03000n      0.       
   24.04000n      0.       
   24.05000n      0.       
   24.06000n      0.       
   24.07000n      0.       
   24.08000n      0.       
   24.09000n      0.       
   24.10000n      0.       
   24.11000n      0.       
   24.12000n      0.       
   24.13000n      0.       
   24.14000n      0.       
   24.15000n      0.       
   24.16000n      0.       
   24.17000n      0.       
   24.18000n      0.       
   24.19000n      0.       
   24.20000n      0.       
   24.21000n      0.       
   24.22000n      0.       
   24.23000n      0.       
   24.24000n      0.       
   24.25000n      0.       
   24.26000n      0.       
   24.27000n      0.       
   24.28000n      0.       
   24.29000n      0.       
   24.30000n      0.       
   24.31000n      0.       
   24.32000n      0.       
   24.33000n      0.       
   24.34000n      0.       
   24.35000n      0.       
   24.36000n      0.       
   24.37000n      0.       
   24.38000n      0.       
   24.39000n      0.       
   24.40000n      0.       
   24.41000n      0.       
   24.42000n      0.       
   24.43000n      0.       
   24.44000n      0.       
   24.45000n      0.       
   24.46000n      0.       
   24.47000n      0.       
   24.48000n      0.       
   24.49000n      0.       
   24.50000n      0.       
   24.51000n      0.       
   24.52000n      0.       
   24.53000n      0.       
   24.54000n      0.       
   24.55000n      0.       
   24.56000n      0.       
   24.57000n      0.       
   24.58000n      0.       
   24.59000n      0.       
   24.60000n      0.       
   24.61000n      0.       
[...]
   68.75000n      0.       
   68.76000n      0.       
   68.77000n      0.       
   68.78000n      0.       
   68.79000n      0.       
   68.80000n      0.       
   68.81000n      0.       
   68.82000n      0.       
   68.83000n      0.       
   68.84000n      0.       
   68.85000n      0.       
   68.86000n      0.       
   68.87000n      0.       
   68.88000n      0.       
   68.89000n      0.       
   68.90000n      0.       
   68.91000n      0.       
   68.92000n      0.       
   68.93000n      0.       
   68.94000n      0.       
   68.95000n      0.       
   68.96000n      0.       
   68.97000n      0.       
   68.98000n      0.       
   68.99000n      0.       
   69.00000n      0.       
   69.01000n      0.       
   69.02000n      0.       
   69.03000n      0.       
   69.04000n      0.       
   69.05000n      0.       
   69.06000n      0.       
   69.07000n      0.       
   69.08000n      0.       
   69.09000n      0.       
   69.10000n      0.       
   69.11000n      0.       
   69.12000n      0.       
   69.13000n      0.       
   69.14000n      0.       
   69.15000n      0.       
   69.16000n      0.       
   69.17000n      0.       
   69.18000n      0.       
   69.19000n      0.       
   69.20000n      0.       
   69.21000n      0.       
   69.22000n      0.       
   69.23000n      0.       
   69.24000n      0.       
   69.25000n      0.       
   69.26000n      0.       
   69.27000n      0.       
   69.28000n      0.       
   69.29000n      0.       
   69.30000n      0.       
   69.31000n      0.       
   69.32000n      0.       
   69.33000n      0.       
   69.34000n      0.       
   69.35000n      0.       
   69.36000n      0.       
   69.37000n      0.       
   69.38000n      0.       
   69.39000n      0.       
   69.40000n      0.       
   69.41000n      0.       
   69.42000n      0.       
   69.43000n      0.       
   69.44000n      0.       
   69.45000n      0.       
   69.46000n      0.       
   69.47000n      0.       
   69.48000n      0.       
   69.49000n      0.       
   69.50000n      0.       
   69.51000n      0.       
   69.52000n      0.       
   69.53000n      0.       
   69.54000n      0.       
   69.55000n      0.       
   69.56000n      0.       
   69.57000n      0.       
   69.58000n      0.       
   69.59000n      0.       
   69.60000n      0.       
   69.61000n      0.       
   69.62000n      0.       
   69.63000n      0.       
   69.64000n      0.       
   69.65000n      0.       
   69.66000n      0.       
   69.67000n      0.       
   69.68000n      0.       
   69.69000n      0.       
   69.70000n      0.       
   69.71000n      0.       
   69.72000n      0.       
   69.73000n      0.       
   69.74000n      0.       
   69.75000n      0.       
   69.76000n      0.       
   69.77000n      0.       
   69.78000n      0.       
   69.79000n      0.       
   69.80000n      0.       
   69.81000n      0.       
   69.82000n      0.       
   69.83000n      0.       
   69.84000n      0.       
   69.85000n      0.       
   69.86000n      0.       
   69.87000n      0.       
   69.88000n      0.       
   69.89000n      0.       
   69.90000n      0.       
   69.91000n      0.       
   69.92000n      0.       
   69.93000n      0.       
   69.94000n      0.       
   69.95000n      0.       
   69.96000n      0.       
   69.97000n      0.       
   69.98000n      0.       
   69.99000n      0.       
   70.00000n      0.       
   70.01000n      0.       
   70.02000n      0.       
   70.03000n      0.       
   70.04000n      0.       
   70.05000n      0.       
   70.06000n      0.       
   70.07000n      0.       
   70.08000n      0.       
   70.09000n      0.       
   70.10000n      0.       
   70.11000n      0.       
   70.12000n      0.       
   70.13000n      0.       
   70.14000n      0.       
   70.15000n      0.       
   70.16000n      0.       
   70.17000n      0.       
   70.18000n      0.       
   70.19000n      0.       
   70.20000n      0.       
   70.21000n      0.       
   70.22000n      0.       
   70.23000n      0.       
   70.24000n      0.       
   70.25000n      0.       
   70.26000n      0.       
   70.27000n      0.       
   70.28000n      0.       
   70.29000n      0.       
   70.30000n      0.       
   70.31000n      0.       
   70.32000n      0.       
   70.33000n      0.       
   70.34000n      0.       
   70.35000n      0.       
   70.36000n      0.       
   70.37000n      0.       
   70.38000n      0.       
   70.39000n      0.       
   70.40000n      0.       
   70.41000n      0.       
   70.42000n      0.       
   70.43000n      0.       
   70.44000n      0.       
   70.45000n      0.       
   70.46000n      0.       
   70.47000n      0.       
   70.48000n      0.       
   70.49000n      0.       
   70.50000n      0.       
   70.51000n      0.       
   70.52000n      0.       
   70.53000n      0.       
   70.54000n      0.       
   70.55000n      0.       
   70.56000n      0.       
   70.57000n      0.       
   70.58000n      0.       
   70.59000n      0.       
   70.60000n      0.       
   70.61000n      0.       
   70.62000n      0.       
   70.63000n      0.       
   70.64000n      0.       
   70.65000n      0.       
   70.66000n      0.       
   70.67000n      0.       
   70.68000n      0.       
   70.69000n      0.       
   70.70000n      0.       
   70.71000n      0.       
   70.72000n      0.       
   70.73000n      0.       
   70.74000n      0.       
   70.75000n      0.       
   70.76000n      0.       
   70.77000n      0.       
   70.78000n      0.       
   70.79000n      0.       
   70.80000n      0.       
   70.81000n      0.       
   70.82000n      0.       
   70.83000n      0.       
   70.84000n      0.       
   70.85000n      0.       
   70.86000n      0.       
   70.87000n      0.       
   70.88000n      0.       
   70.89000n      0.       
   70.90000n      0.       
   70.91000n      0.       
   70.92000n      0.       
   70.93000n      0.       
   70.94000n      0.       
   70.95000n      0.       
   70.96000n      0.       
   70.97000n      0.       
   70.98000n      0.       
   70.99000n      0.       
   71.00000n      0.       
   71.01000n      0.       
   71.02000n      0.       
   71.03000n      0.       
   71.04000n      0.       
   71.05000n      0.       
   71.06000n      0.       
   71.07000n      0.       
   71.08000n      0.       
   71.09000n      0.       
   71.10000n      0.       
   71.11000n      0.       
   71.12000n      0.       
   71.13000n      0.       
   71.14000n      0.       
   71.15000n      0.       
   71.16000n      0.       
   71.17000n      0.       
   71.18000n      0.       
   71.19000n      0.       
   71.20000n      0.       
   71.21000n      0.       
   71.22000n      0.       
   71.23000n      0.       
   71.24000n      0.       
   71.25000n      0.       
   71.26000n      0.       
   71.27000n      0.       
   71.28000n      0.       
   71.29000n      0.       
   71.30000n      0.       
   71.31000n      0.       
   71.32000n      0.       
   71.33000n      0.       
   71.34000n      0.       
   71.35000n      0.       
   71.36000n      0.       
   71.37000n      0.       
   71.38000n      0.       
   71.39000n      0.       
   71.40000n      0.       
   71.41000n      0.       
   71.42000n      0.       
   71.43000n      0.       
   71.44000n      0.       
   71.45000n      0.       
   71.46000n      0.       
   71.47000n      0.       
   71.48000n      0.       
   71.49000n      0.       
   71.50000n      0.       
   71.51000n      0.       
   71.52000n      0.       
   71.53000n      0.       
   71.54000n      0.       
   71.55000n      0.       
   71.56000n      0.       
   71.57000n      0.       
   71.58000n      0.       
   71.59000n      0.       
   71.60000n      0.       
   71.61000n      0.       
   71.62000n      0.       
   71.63000n      0.       
   71.64000n      0.       
   71.65000n      0.       
   71.66000n      0.       
   71.67000n      0.       
   71.68000n      0.       
   71.69000n      0.       
   71.70000n      0.       
   71.71000n      0.       
   71.72000n      0.       
   71.73000n      0.       
   71.74000n      0.       
   71.75000n      0.       
   71.76000n      0.       
   71.77000n      0.       
   71.78000n      0.       
   71.79000n      0.       
   71.80000n      0.       
   71.81000n      0.       
   71.82000n      0.       
   71.83000n      0.       
   71.84000n      0.       
   71.85000n      0.       
   71.86000n      0.       
   71.87000n      0.       
   71.88000n      0.       
   71.89000n      0.       
   71.90000n      0.       
   71.91000n      0.       
   71.92000n      0.       
   71.93000n      0.       
   71.94000n      0.       
   71.95000n      0.       
   71.96000n      0.       
   71.97000n      0.       
   71.98000n      0.       
   71.99000n      0.       
   72.00000n      0.       
   72.01000n      0.       
   72.02000n      0.       
   72.03000n      0.       
   72.04000n      0.       
   72.05000n      0.       
   72.06000n      0.       
   72.07000n      0.       
   72.08000n      0.       
   72.09000n      0.       
   72.10000n      0.       
   72.11000n      0.       
   72.12000n      0.       
   72.13000n      0.       
   72.14000n      0.       
   72.15000n      0.       
   72.16000n      0.       
   72.17000n      0.       
   72.18000n      0.       
   72.19000n      0.       
   72.20000n      0.       
   72.21000n      0.       
   72.22000n      0.       
   72.23000n      0.       
   72.24000n      0.       
   72.25000n      0.       
   72.26000n      0.       
   72.27000n      0.       
   72.28000n      0.       
   72.29000n      0.       
   72.30000n      0.       
   72.31000n      0.       
   72.32000n      0.       
   72.33000n      0.       
   72.34000n      0.       
   72.35000n      0.       
   72.36000n      0.       
   72.37000n      0.       
   72.38000n      0.       
   72.39000n      0.       
   72.40000n      0.       
   72.41000n      0.       
   72.42000n      0.       
   72.43000n      0.       
   72.44000n      0.       
   72.45000n      0.       
   72.46000n      0.       
   72.47000n      0.       
   72.48000n      0.       
   72.49000n      0.       
   72.50000n      0.       
   72.51000n      0.       
   72.52000n      0.       
   72.53000n      0.       
   72.54000n      0.       
   72.55000n      0.       
   72.56000n      0.       
   72.57000n      0.       
   72.58000n      0.       
   72.59000n      0.       
   72.60000n      0.       
   72.61000n      0.       
   72.62000n      0.       
   72.63000n      0.       
   72.64000n      0.       
   72.65000n      0.       
   72.66000n      0.       
   72.67000n      0.       
   72.68000n      0.       
   72.69000n      0.       
   72.70000n      0.       
   72.71000n      0.       
   72.72000n      0.       
   72.73000n      0.       
   72.74000n      0.       
   72.75000n      0.       
   72.76000n      0.       
   72.77000n      0.       
   72.78000n      0.       
   72.79000n      0.       
   72.80000n      0.       
   72.81000n      0.       
   72.82000n      0.       
   72.83000n      0.       
   72.84000n      0.       
   72.85000n      0.       
   72.86000n      0.       
   72.87000n      0.       
   72.88000n      0.       
   72.89000n      0.       
   72.90000n      0.       
   72.91000n      0.       
   72.92000n      0.       
   72.93000n      0.       
   72.94000n      0.       
   72.95000n      0.       
   72.96000n      0.       
   72.97000n      0.       
   72.98000n      0.       
   72.99000n      0.       
   73.00000n      0.       
   73.01000n      0.       
   73.02000n      0.       
   73.03000n      0.       
   73.04000n      0.       
   73.05000n      0.       
   73.06000n      0.       
   73.07000n      0.       
   73.08000n      0.       
   73.09000n      0.       
   73.10000n      0.       
   73.11000n      0.       
   73.12000n      0.       
   73.13000n      0.       
   73.14000n      0.       
   73.15000n      0.       
   73.16000n      0.       
   73.17000n      0.       
   73.18000n      0.       
   73.19000n      0.       
   73.20000n      0.       
   73.21000n      0.       
   73.22000n      0.       
   73.23000n      0.       
   73.24000n      0.       
   73.25000n      0.       
   73.26000n      0.       
   73.27000n      0.       
   73.28000n      0.       
   73.29000n      0.       
   73.30000n      0.       
   73.31000n      0.       
   73.32000n      0.       
   73.33000n      0.       
   73.34000n      0.       
   73.35000n      0.       
   73.36000n      0.       
   73.37000n      0.       
   73.38000n      0.       
   73.39000n      0.       
   73.40000n      0.       
   73.41000n      0.       
   73.42000n      0.       
   73.43000n      0.       
   73.44000n      0.       
   73.45000n      0.       
   73.46000n      0.       
   73.47000n      0.       
   73.48000n      0.       
   73.49000n      0.       
   73.50000n      0.       
   73.51000n      0.       
   73.52000n      0.       
   73.53000n      0.       
   73.54000n      0.       
   73.55000n      0.       
   73.56000n      0.       
   73.57000n      0.       
   73.58000n      0.       
   73.59000n      0.       
   73.60000n      0.       
   73.61000n      0.       
   73.62000n      0.       
   73.63000n      0.       
   73.64000n      0.       
   73.65000n      0.       
   73.66000n      0.       
   73.67000n      0.       
   73.68000n      0.       
   73.69000n      0.       
   73.70000n      0.       
   73.71000n      0.       
   73.72000n      0.       
   73.73000n      0.       
   73.74000n      0.       
   73.75000n      0.       
   73.76000n      0.       
   73.77000n      0.       
   73.78000n      0.       
   73.79000n      0.       
   73.80000n      0.       
   73.81000n      0.       
   73.82000n      0.       
   73.83000n      0.       
   73.84000n      0.       
   73.85000n      0.       
   73.86000n      0.       
   73.87000n      0.       
   73.88000n      0.       
   73.89000n      0.       
   73.90000n      0.       
   73.91000n      0.       
   73.92000n      0.       
   73.93000n      0.       
   73.94000n      0.       
   73.95000n      0.       
   73.96000n      0.       
   73.97000n      0.       
   73.98000n      0.       
   73.99000n      0.       
   74.00000n      0.       
   74.01000n      0.       
   74.02000n      0.       
   74.03000n      0.       
   74.04000n      0.       
   74.05000n      0.       
   74.06000n      0.       
   74.07000n      0.       
   74.08000n      0.       
   74.09000n      0.       
   74.10000n      0.       
   74.11000n      0.       
   74.12000n      0.       
   74.13000n      0.       
   74.14000n      0.       
   74.15000n      0.       
   74.16000n      0.       
   74.17000n      0.       
   74.18000n      0.       
   74.19000n      0.       
   74.20000n      0.       
   74.21000n      0.       
   74.22000n      0.       
   74.23000n      0.       
   74.24000n      0.       
   74.25000n      0.       
   74.26000n      0.       
   74.27000n      0.       
   74.28000n      0.       
   74.29000n      0.       
   74.30000n      0.       
   74.31000n      0.       
   74.32000n      0.       
   74.33000n      0.       
   74.34000n      0.       
   74.35000n      0.       
   74.36000n      0.       
   74.37000n      0.       
   74.38000n      0.       
   74.39000n      0.       
   74.40000n      0.       
   74.41000n      0.       
   74.42000n      0.       
   74.43000n      0.       
   74.44000n      0.       
   74.45000n      0.       
   74.46000n      0.       
   74.47000n      0.       
   74.48000n      0.       
   74.49000n      0.       
   74.50000n      0.       
   74.51000n      0.       
   74.52000n      0.       
   74.53000n      0.       
   74.54000n      0.       
   74.55000n      0.       
   74.56000n      0.       
   74.57000n      0.       
   74.58000n      0.       
   74.59000n      0.       
   74.60000n      0.       
   74.61000n      0.       
   74.62000n      0.       
   74.63000n      0.       
   74.64000n      0.       
   74.65000n      0.       
   74.66000n      0.       
   74.67000n      0.       
   74.68000n      0.       
   74.69000n      0.       
   74.70000n      0.       
   74.71000n      0.       
   74.72000n      0.       
   74.73000n      0.       
   74.74000n      0.       
   74.75000n      0.       
   74.76000n      0.       
   74.77000n      0.       
   74.78000n      0.       
   74.79000n      0.       
   74.80000n      0.       
   74.81000n      0.       
   74.82000n      0.       
   74.83000n      0.       
   74.84000n      0.       
   74.85000n      0.       
   74.86000n      0.       
   74.87000n      0.       
   74.88000n      0.       
   74.89000n      0.       
   74.90000n      0.       
   74.91000n      0.       
   74.92000n      0.       
   74.93000n      0.       
   74.94000n      0.       
   74.95000n      0.       
   74.96000n      0.       
   74.97000n      0.       
   74.98000n      0.       
   74.99000n      0.       
   75.00000n      0.       
y

          ***** job concluded
1****** HSPICE -- D-2010.03-SP1 32-BIT (May 26 2010) winnt ******               
 ******  
 ** --------------------------------------**

  ******  job statistics summary tnom=  25.000 temp=  25.000 *****

  ******  HSPICE Threads Information  ******

  Command Line Threads Count                  :     1
  Available CPU Count                         :     4
  Actual Model Evaluation(Load) Threads Count :     1
  Actual Solver Threads Count                 :     1


  ******  Circuit Statistics  ******
  # nodes       =      39 # elements   =      11
  # resistors   =       0 # capacitors =       1 # inductors   =       0
  # mutual_inds =       0 # vccs       =       0 # vcvs        =       0
  # cccs        =       0 # ccvs       =       0 # volt_srcs   =       2
  # curr_srcs   =       0 # diodes     =       0 # bjts        =       0
  # jfets       =       0 # mosfets    =       8 # U elements  =       0
  # T elements  =       0 # W elements =       0 # B elements  =       0
  # S elements  =       0 # P elements =       0 # va device   =       0


  ******  Runtime Statistics (seconds)  ******

  analysis           time    # points   tot. iter  conv.iter
  op point           0.00           1          11
  dc sweep           0.00         111         231
  transient          0.05        7501         377         143 rev=        10
  readin             0.05
  errchk             0.00
  setup              0.02
  output             0.00


           total memory used          182  kbytes
           total cpu time            0.16 seconds
           total elapsed time        0.18 seconds
           job started at     16:45:15 01/19/2014
           job ended   at     16:45:16 01/19/2014


  lic: Release hspice token(s) 
